/*--------------------------------*- C++ -*----------------------------------*\
| =========                 |                                                 |
| \\      /  F ield         | OpenFOAM Extend Project: Open Source CFD        |
|  \\    /   O peration     | Version:  1.6-ext                               |
|   \\  /    A nd           | Web:      www.extend-project.de                 |
|    \\/     M anipulation  |                                                 |
\*---------------------------------------------------------------------------*/
FoamFile
{
    version     2.0;
    format      ascii;
    class       volVectorField;
    object      U;
}
// * * * * * * * * * * * * * * * * * * * * * * * * * * * * * * * * * * * * * //

dimensions      [0 1 -1 0 0 0 0];

internalField   uniform (0 0 0);

boundaryField
{
    ".*"
    {
        type            fixedValue;
        value           uniform (0 0 0);
    }

    cabInlet
    {
        type            flowRateInletVelocity;
        flowRate        0.00692;
        value           uniform (0 -0.692 0);
    }

    "bayInlet.*"
    {
        type            flowRateInletVelocity;
        flowRate        0.006916;
        value           uniform (0 0 0);
    }

    ".*Outlet.*"
    {
        type            inletOutlet;
        inletValue      uniform (0 0 0);
        value           uniform (0 0 0);
    }

    defaultFaces
    {
        type            empty;
    }
}

// ************************************************************************* //
