/*--------------------------------*- C++ -*----------------------------------*\
| =========                 |                                                 |
| \\      /  F ield         | OpenFOAM Extend Project: Open source CFD        |
|  \\    /   O peration     | Version:  1.6-ext                               |
|   \\  /    A nd           | Web:      www.extend-project.de                 |
|    \\/     M anipulation  |                                                 |
\*---------------------------------------------------------------------------*/
FoamFile
{
    version     2.0;
    format      ascii;
    class       polyBoundaryMesh;
    location    "constant/polyMesh";
    object      boundary;
}
// * * * * * * * * * * * * * * * * * * * * * * * * * * * * * * * * * * * * * //

4
(
    topAndBottom
    {
        type            patch;
        nFaces          20;
        startFace       180;
    }
    left
    {
        type            patch;
        nFaces          10;
        startFace       200;
    }
    right
    {
        type            patch;
        nFaces          10;
        startFace       210;
    }
    frontAndBack
    {
        type            empty;
        nFaces          200;
        startFace       220;
    }
)

// ************************************************************************* //
