/*--------------------------------*- C++ -*----------------------------------*\
| =========                 |                                                 |
| \\      /  F ield         | OpenFOAM Extend Project: Open Source CFD        |
|  \\    /   O peration     | Version:  1.6-ext                               |
|   \\  /    A nd           | Web:      www.extend-project.de                 |
|    \\/     M anipulation  |                                                 |
\*---------------------------------------------------------------------------*/
FoamFile
{
    version     2.0;
    format      ascii;
    class       volScalarField;
    object      kappaEff;
}
// * * * * * * * * * * * * * * * * * * * * * * * * * * * * * * * * * * * * * //

dimensions      [1 1 -3 -1 0 0 0];

internalField   uniform 1e-3;

boundaryField
{
    ".*"
    {
        type            zeroGradient;
    }

    "toS.*"
    {
        type            chtRcThermalDiffusivity;
        remoteField     k;
        value           uniform 1e-3;
    }

    cabHeatTransmissiveWall
    {
	type            zeroGradient;
        //type            chtRcThermalDiffusivity;
        conductivity    uniform 50;
        remoteField     kappaEff;
        value           uniform 1e-3;
    }

    bayHeatTransmissiveWall
    {
	type            zeroGradient;
        //type            chtRcThermalDiffusivitySlave;
        remoteField     kappaEff;
        value           uniform 1e-3;
    }

    defaultFaces
    {
        type            empty;
    }
}

// ************************************************************************* //
