/*--------------------------------*- C++ -*----------------------------------*\
| =========                 |                                                 |
| \\      /  F ield         | OpenFOAM Extend Project: Open source CFD        |
|  \\    /   O peration     | Version:  1.6-ext                               |
|   \\  /    A nd           | Web:      www.extend-project.de                 |
|    \\/     M anipulation  |                                                 |
\*---------------------------------------------------------------------------*/
FoamFile
{
    version     2.0;
    format      ascii;
    class       volScalarField;
    location    "0";
    object      epsilon;
}
// * * * * * * * * * * * * * * * * * * * * * * * * * * * * * * * * * * * * * //

dimensions      [0 0 -1 0 0 0 0];

internalField   uniform 1;

boundaryField
{
    ".*"
    {
        type            omegaWallFunction;
        Cmu             0.09;
        kappa           0.41;
        E               9.8;
        value           uniform 10;
    }

    ".*Outlet.*"
    {
        type            inletOutlet;
        inletValue      uniform 2;
        value           uniform 2;
    }

    ".*Inlet.*"
    {
        type            turbulentMixingLengthFrequencyInlet;
        mixingLength    0.007;
        value           uniform 0.01;
    }

    defaultFaces
    {
        type            empty;
    }
}


// ************************************************************************* //
