/*--------------------------------*- C++ -*----------------------------------*\
| =========                 |                                                 |
| \\      /  F ield         | OpenFOAM Extend Project: Open Source CFD        |
|  \\    /   O peration     | Version:  1.6-ext                               |
|   \\  /    A nd           | Web:      www.extend-project.de                 |
|    \\/     M anipulation  |                                                 |
\*---------------------------------------------------------------------------*/
FoamFile
{
    version     2.0;
    format      ascii;
    class       dictionary;
    object      blockMeshDict;
}
// * * * * * * * * * * * * * * * * * * * * * * * * * * * * * * * * * * * * * //

convertToMeters 0.001;

vertices
(
    (0 0   0)         // 0
    (2 0   0)         // 1
    (4 0   0)         // 2
    (0 20  0)         // 3
    (2 20  0)         // 4
    (4 20  0)         // 5
    (0 40  0)         // 6
    (2 40  0)         // 7
    (4 40  0)         // 8
    (0 70  0)         // 9
    (2 70  0)         // 10
    (4 70  0)         // 11
    (0 90  0)         // 12
    (2 90  0)         // 13
    (4 90  0)         // 14
    (0 130 0)         // 15
    (2 130 0)         // 16
    (4 130 0)         // 17
    (0 0   0.1)       // 18
    (2 0   0.1)       // 19
    (4 0   0.1)       // 20
    (0 20  0.1)       // 21
    (2 20  0.1)       // 22
    (4 20  0.1)       // 23
    (0 40  0.1)       // 24
    (2 40  0.1)       // 25
    (4 40  0.1)       // 26
    (0 70  0.1)       // 27
    (2 70  0.1)       // 28
    (4 70  0.1)       // 29
    (0 90  0.1)       // 30
    (2 90  0.1)       // 31
    (4 90  0.1)       // 32
    (0 130 0.1)       // 33
    (2 130 0.1)       // 34
    (4 130 0.1)       // 35
);

blocks
(
    hex (0 1 4 3 18 19 22 21) (20 20 1) simpleGrading (1 1 1) // block0
    hex (3 4 7 6 21 22 25 24) (20 20 1) simpleGrading (1 1 1) // block1
    hex (4 5 8 7 22 23 26 25) (20 20 1) simpleGrading (1 1 1) // block2
    hex (6 7 10 9 24 25 28 27) (20 30 1) simpleGrading (1 1 1) // block3
    hex (9 10 13 12 27 28 31 30) (20 20 1) simpleGrading (1 1 1) // block4
    hex (10 11 14 13 28 29 32 31) (20 20 1) simpleGrading (1 1 1) // block5
    hex (12 13 16 15 30 31 34 33) (20 40 1) simpleGrading (1 1 1) // block6
);

edges
(
);

patches
(
    wall solidWall
    (
        (0 1 19 18)
        (34 16 15 33)
    )
    patch solidCoupledWall
    (
        (1 4 22 19)
        (4 5 23 22)
        (5 8 26 23)
        (8 7 25 26)
        (7 10 28 25)
        (10 11 29 28)
        (11 14 32 29)
        (14 13 31 32)
	(13 16 34 31)

    )
    symmetryPlane solidSide
    (
        (0 18 21 3)
        (3 21 24 6)
        (6 24 27 9)
	(9 27 30 12)
	(12 30 33 15)
    )
);

mergePatchPairs
(
);

// ************************************************************************* //
