/*--------------------------------*- C++ -*----------------------------------*\
| =========                 |                                                 |
| \\      /  F ield         | OpenFOAM Extend Project: Open Source CFD        |
|  \\    /   O peration     | Version:  1.6-ext                               |
|   \\  /    A nd           | Web:      www.extend-project.de                 |
|    \\/     M anipulation  |                                                 |
\*---------------------------------------------------------------------------*/
FoamFile
{
    version     2.0;
    format      ascii;
    class       volScalarField;
    object      G;
}
// * * * * * * * * * * * * * * * * * * * * * * * * * * * * * * * * * * * * * //

dimensions      [1 0 -3 0 0 0 0];

internalField   uniform 0;

boundaryField
{
    fluidInlet
    {
        type            MarshakRadiation;
        T               T;
        emissivity      1;
        value           uniform 0;
    }

    fluidOutlet
    {
        type            MarshakRadiation;
        T               T;
        emissivity      1;
        value           uniform 0;
    }

    fluidCoupledWall
    {
        type            MarshakRadiation;
        T               T;
        emissivity      1;
        value           uniform 0;
    }

    fluidSide
    {
        type            symmetryPlane;
    }

    defaultFaces
    {
        type            empty;
    }

}

// ************************************************************************* //
