/*--------------------------------*- C++ -*----------------------------------*\
| =========                 |                                                 |
| \\      /  F ield         | OpenFOAM: The Open Source CFD Toolbox           |
|  \\    /   O peration     | Version:  2.1.x                                 |
|   \\  /    A nd           | Web:      www.OpenFOAM.org                      |
|    \\/     M anipulation  |                                                 |
\*---------------------------------------------------------------------------*/
FoamFile
{
    version     2.0;
    format      ascii;
    class       labelListList;
    location    "constant";
    object      finalAgglom;
}
// * * * * * * * * * * * * * * * * * * * * * * * * * * * * * * * * * * * * * //


5
(
10(0 0 1 1 2 2 3 3 4 4)
10(0 0 1 1 2 2 3 3 4 4)
10(0 0 1 1 2 2 3 3 4 4)
10(0 0 1 1 2 2 3 3 4 4)

200
(
0
0
1
1
2
3
3
4
4
5
0
0
1
1
2
3
3
4
4
5
6
6
7
7
2
8
8
9
9
5
6
6
7
7
2
8
8
9
9
5
10
10
10
10
11
11
11
12
12
13
14
14
15
15
16
16
11
12
12
13
14
14
15
15
16
16
17
17
13
13
18
18
19
19
20
17
17
21
21
22
18
18
19
19
20
23
23
21
21
22
24
24
24
24
20
20
23
23
22
22
25
25
26
26
27
28
28
29
29
30
25
25
26
26
27
28
28
29
29
30
31
31
32
32
27
33
33
34
34
30
31
31
32
32
27
33
33
34
34
30
35
35
35
35
36
37
37
38
38
38
39
39
40
40
36
41
37
42
42
38
39
39
40
40
36
41
37
42
42
43
44
44
45
45
36
41
46
46
47
43
44
44
45
45
48
41
46
46
47
43
48
48
48
48
48
46
46
47
47
43
)

)


// ************************************************************************* //
