/*--------------------------------*- C++ -*----------------------------------*\
| =========                 |                                                 |
| \\      /  F ield         | OpenFOAM: The Open Source CFD Toolbox           |
|  \\    /   O peration     | Version:  2.1.x                                 |
|   \\  /    A nd           | Web:      www.OpenFOAM.org                      |
|    \\/     M anipulation  |                                                 |
\*---------------------------------------------------------------------------*/
FoamFile
{
    version     2.0;
    format      ascii;
    class       labelListList;
    location    "constant";
    object      globalFaceFaces;
}
// * * * * * * * * * * * * * * * * * * * * * * * * * * * * * * * * * * * * * //


20
(

15
(
5
6
7
8
9
10
11
12
13
14
15
16
17
18
19
)


15
(
5
6
7
8
9
10
11
12
13
14
15
16
17
18
19
)


15
(
5
6
7
8
9
10
11
12
13
14
15
16
17
18
19
)


15
(
5
6
7
8
9
10
11
12
13
14
15
16
17
18
19
)


15
(
5
6
7
8
9
10
11
12
13
14
15
16
17
18
19
)


15
(
0
1
2
3
4
10
11
12
13
14
15
16
17
18
19
)


15
(
0
1
2
3
4
10
11
12
13
14
15
16
17
18
19
)


15
(
0
1
2
3
4
10
11
12
13
14
15
16
17
18
19
)


15
(
0
1
2
3
4
10
11
12
13
14
15
16
17
18
19
)


15
(
0
1
2
3
4
10
11
12
13
14
15
16
17
18
19
)


15
(
0
1
2
3
4
5
6
7
8
9
15
16
17
18
19
)


15
(
0
1
2
3
4
5
6
7
8
9
15
16
17
18
19
)


15
(
0
1
2
3
4
5
6
7
8
9
15
16
17
18
19
)


15
(
0
1
2
3
4
5
6
7
8
9
15
16
17
18
19
)


15
(
0
1
2
3
4
5
6
7
8
9
15
16
17
18
19
)


15
(
0
1
2
3
4
5
6
7
8
9
10
11
12
13
14
)


15
(
0
1
2
3
4
5
6
7
8
9
10
11
12
13
14
)


15
(
0
1
2
3
4
5
6
7
8
9
10
11
12
13
14
)


15
(
0
1
2
3
4
5
6
7
8
9
10
11
12
13
14
)


15
(
0
1
2
3
4
5
6
7
8
9
10
11
12
13
14
)

)


// ************************************************************************* //
