/*--------------------------------*- C++ -*----------------------------------*\
| =========                 |                                                 |
| \\      /  F ield         | OpenFOAM Extend Project: Open Source CFD        |
|  \\    /   O peration     | Version:  1.6-ext                               |
|   \\  /    A nd           | Web:      www.extend-project.de                 |
|    \\/     M anipulation  |                                                 |
\*---------------------------------------------------------------------------*/
FoamFile
{
    version     2.0;
    format      ascii;
    class       dictionary;
    object      environmentalProperties;
}
// * * * * * * * * * * * * * * * * * * * * * * * * * * * * * * * * * * * * * //

radiation      on;

radiationModel viewFactor;

noRadiation
{
}

P1Coeffs
{
}

viewFactorCoeffs
{
    smoothing true; //Smooth view factor matrix (use when in a close surface
                    //to force Sum(Fij = 1)
    constantEmissivity true; //constant emissivity on surfaces.
}

absorptionEmissionModel constantAbsorptionEmission;

constantAbsorptionEmissionCoeffs
{
    a              a      [ 0 -1  0  0  0  0  0] 0.0;
    e              e      [ 0 -1  0  0  0  0  0] 0.0;
    E              E      [ 1 -1 -3  0  0  0  0] 0.0;
}

scatterModel constantScatter;

constantScatterCoeffs
{
    sigma          sigma  [ 0 -1  0  0  0  0  0] 0.1;
    C              C      [ 0  0  0  0  0  0  0] 0.0;
}

solverFreq 1;

// ************************************************************************* //
